New Loadshape.Shape_1 npts=1440 minterval=1 mult=(file=Daily_1min_100profiles\Load_profile_1.txt) useactual=true
New Loadshape.Shape_2 npts=1440 minterval=1 mult=(file=Daily_1min_100profiles\Load_profile_2.txt) useactual=true
New Loadshape.Shape_3 npts=1440 minterval=1 mult=(file=Daily_1min_100profiles\Load_profile_3.txt) useactual=true
New Loadshape.Shape_4 npts=1440 minterval=1 mult=(file=Daily_1min_100profiles\Load_profile_4.txt) useactual=true
New Loadshape.Shape_5 npts=1440 minterval=1 mult=(file=Daily_1min_100profiles\Load_profile_5.txt) useactual=true
New Loadshape.Shape_6 npts=1440 minterval=1 mult=(file=Daily_1min_100profiles\Load_profile_6.txt) useactual=true
New Loadshape.Shape_7 npts=1440 minterval=1 mult=(file=Daily_1min_100profiles\Load_profile_7.txt) useactual=true
New Loadshape.Shape_8 npts=1440 minterval=1 mult=(file=Daily_1min_100profiles\Load_profile_8.txt) useactual=true
New Loadshape.Shape_9 npts=1440 minterval=1 mult=(file=Daily_1min_100profiles\Load_profile_9.txt) useactual=true
New Loadshape.Shape_10 npts=1440 minterval=1 mult=(file=Daily_1min_100profiles\Load_profile_10.txt) useactual=true
New Loadshape.Shape_11 npts=1440 minterval=1 mult=(file=Daily_1min_100profiles\Load_profile_11.txt) useactual=true
New Loadshape.Shape_12 npts=1440 minterval=1 mult=(file=Daily_1min_100profiles\Load_profile_12.txt) useactual=true
New Loadshape.Shape_13 npts=1440 minterval=1 mult=(file=Daily_1min_100profiles\Load_profile_13.txt) useactual=true
New Loadshape.Shape_14 npts=1440 minterval=1 mult=(file=Daily_1min_100profiles\Load_profile_14.txt) useactual=true
New Loadshape.Shape_15 npts=1440 minterval=1 mult=(file=Daily_1min_100profiles\Load_profile_15.txt) useactual=true
New Loadshape.Shape_16 npts=1440 minterval=1 mult=(file=Daily_1min_100profiles\Load_profile_16.txt) useactual=true
New Loadshape.Shape_17 npts=1440 minterval=1 mult=(file=Daily_1min_100profiles\Load_profile_17.txt) useactual=true
New Loadshape.Shape_18 npts=1440 minterval=1 mult=(file=Daily_1min_100profiles\Load_profile_18.txt) useactual=true
New Loadshape.Shape_19 npts=1440 minterval=1 mult=(file=Daily_1min_100profiles\Load_profile_19.txt) useactual=true
New Loadshape.Shape_20 npts=1440 minterval=1 mult=(file=Daily_1min_100profiles\Load_profile_20.txt) useactual=true
New Loadshape.Shape_21 npts=1440 minterval=1 mult=(file=Daily_1min_100profiles\Load_profile_21.txt) useactual=true
New Loadshape.Shape_22 npts=1440 minterval=1 mult=(file=Daily_1min_100profiles\Load_profile_22.txt) useactual=true
New Loadshape.Shape_23 npts=1440 minterval=1 mult=(file=Daily_1min_100profiles\Load_profile_23.txt) useactual=true
New Loadshape.Shape_24 npts=1440 minterval=1 mult=(file=Daily_1min_100profiles\Load_profile_24.txt) useactual=true
New Loadshape.Shape_25 npts=1440 minterval=1 mult=(file=Daily_1min_100profiles\Load_profile_25.txt) useactual=true
New Loadshape.Shape_26 npts=1440 minterval=1 mult=(file=Daily_1min_100profiles\Load_profile_26.txt) useactual=true
New Loadshape.Shape_27 npts=1440 minterval=1 mult=(file=Daily_1min_100profiles\Load_profile_27.txt) useactual=true
New Loadshape.Shape_28 npts=1440 minterval=1 mult=(file=Daily_1min_100profiles\Load_profile_28.txt) useactual=true
New Loadshape.Shape_29 npts=1440 minterval=1 mult=(file=Daily_1min_100profiles\Load_profile_29.txt) useactual=true
New Loadshape.Shape_30 npts=1440 minterval=1 mult=(file=Daily_1min_100profiles\Load_profile_30.txt) useactual=true
New Loadshape.Shape_31 npts=1440 minterval=1 mult=(file=Daily_1min_100profiles\Load_profile_31.txt) useactual=true
New Loadshape.Shape_32 npts=1440 minterval=1 mult=(file=Daily_1min_100profiles\Load_profile_32.txt) useactual=true
New Loadshape.Shape_33 npts=1440 minterval=1 mult=(file=Daily_1min_100profiles\Load_profile_33.txt) useactual=true
New Loadshape.Shape_34 npts=1440 minterval=1 mult=(file=Daily_1min_100profiles\Load_profile_34.txt) useactual=true
New Loadshape.Shape_35 npts=1440 minterval=1 mult=(file=Daily_1min_100profiles\Load_profile_35.txt) useactual=true
New Loadshape.Shape_36 npts=1440 minterval=1 mult=(file=Daily_1min_100profiles\Load_profile_36.txt) useactual=true
New Loadshape.Shape_37 npts=1440 minterval=1 mult=(file=Daily_1min_100profiles\Load_profile_37.txt) useactual=true
New Loadshape.Shape_38 npts=1440 minterval=1 mult=(file=Daily_1min_100profiles\Load_profile_38.txt) useactual=true
New Loadshape.Shape_39 npts=1440 minterval=1 mult=(file=Daily_1min_100profiles\Load_profile_39.txt) useactual=true
New Loadshape.Shape_40 npts=1440 minterval=1 mult=(file=Daily_1min_100profiles\Load_profile_40.txt) useactual=true
New Loadshape.Shape_41 npts=1440 minterval=1 mult=(file=Daily_1min_100profiles\Load_profile_41.txt) useactual=true
New Loadshape.Shape_42 npts=1440 minterval=1 mult=(file=Daily_1min_100profiles\Load_profile_42.txt) useactual=true
New Loadshape.Shape_43 npts=1440 minterval=1 mult=(file=Daily_1min_100profiles\Load_profile_43.txt) useactual=true
New Loadshape.Shape_44 npts=1440 minterval=1 mult=(file=Daily_1min_100profiles\Load_profile_44.txt) useactual=true
New Loadshape.Shape_45 npts=1440 minterval=1 mult=(file=Daily_1min_100profiles\Load_profile_45.txt) useactual=true
New Loadshape.Shape_46 npts=1440 minterval=1 mult=(file=Daily_1min_100profiles\Load_profile_46.txt) useactual=true
New Loadshape.Shape_47 npts=1440 minterval=1 mult=(file=Daily_1min_100profiles\Load_profile_47.txt) useactual=true
New Loadshape.Shape_48 npts=1440 minterval=1 mult=(file=Daily_1min_100profiles\Load_profile_48.txt) useactual=true
New Loadshape.Shape_49 npts=1440 minterval=1 mult=(file=Daily_1min_100profiles\Load_profile_49.txt) useactual=true
New Loadshape.Shape_50 npts=1440 minterval=1 mult=(file=Daily_1min_100profiles\Load_profile_50.txt) useactual=true
New Loadshape.Shape_51 npts=1440 minterval=1 mult=(file=Daily_1min_100profiles\Load_profile_51.txt) useactual=true
New Loadshape.Shape_52 npts=1440 minterval=1 mult=(file=Daily_1min_100profiles\Load_profile_52.txt) useactual=true
New Loadshape.Shape_53 npts=1440 minterval=1 mult=(file=Daily_1min_100profiles\Load_profile_53.txt) useactual=true
New Loadshape.Shape_54 npts=1440 minterval=1 mult=(file=Daily_1min_100profiles\Load_profile_54.txt) useactual=true
New Loadshape.Shape_55 npts=1440 minterval=1 mult=(file=Daily_1min_100profiles\Load_profile_55.txt) useactual=true
