New Transformer.TR1 Buses=[SourceBus 1] Conns=[Delta Wye] kVs=[11 0.4] kVAs=[800 800] XHL=4 sub=y

! Original setting had standard phase voltage of 240 Volts on secondary winding.
! New Transformer.TR1 Buses=[SourceBus 1] Conns=[Delta Wye] kVs=[11 0.416] kVAs=[800 800] XHL=4 sub=y

